Circuit: * C:\users\greg\Bureau\électronique\Yves02\ltspice\cdiff.asc

Instance "m:u2:2": Length shorter than recommended for a level 1 MOSFET.
Instance "m:u2:1": Length shorter than recommended for a level 1 MOSFET.
Instance "m:u1:2": Length shorter than recommended for a level 1 MOSFET.
Instance "m:u1:1": Length shorter than recommended for a level 1 MOSFET.
Direct Newton iteration for .op point succeeded.

Date: Wed Oct 18 08:38:03 2017
Total elapsed time: 1.044 seconds.

tnom = 27
temp = 27
method = modified trap
totiter = 34101
traniter = 34087
tranpoints = 16424
accept = 12552
rejected = 3872
matrix size = 70
fillins = 47
solver = Normal
Thread vector: 16.3/14.0[2] 5.5/4.1[2] 2.0/1.9[1] 0.5/1.2[1]  2592/500
Matrix Compiler1: 5.87 KB object code size  2.3/1.2/[0.7]
Matrix Compiler2: 6.31 KB object code size  1.1/1.3/[0.9]


