Circuit: * C:\users\greg\Bureau\électronique\Yves02\ltspice\cdiff2.asc

Instance "m:u2:2": Length shorter than recommended for a level 1 MOSFET.
Instance "m:u2:1": Length shorter than recommended for a level 1 MOSFET.
Instance "m:u1:2": Length shorter than recommended for a level 1 MOSFET.
Instance "m:u1:1": Length shorter than recommended for a level 1 MOSFET.
Direct Newton iteration for .op point succeeded.

Date: Wed Jun 03 22:04:02 2020
Total elapsed time: 0.932 seconds.

tnom = 27
temp = 27
method = modified trap
totiter = 32620
traniter = 32606
tranpoints = 13484
accept = 9944
rejected = 3540
matrix size = 71
fillins = 46
solver = Normal
Thread vector: 18.3/15.3[2] 6.6/4.7[2] 3.0/2.8[1] 1.0/1.8[1]  2592/500
Matrix Compiler1: 5.72 KB object code size  2.5/1.4/[1.4]
Matrix Compiler2: 6.29 KB object code size  1.4/2.1/[1.2]


