Circuit: * C:\users\greg\Mes documents\électronique\Yves02\schematics\NFB.asc

Direct Newton iteration for .op point succeeded.

vg1: PP(v(n007))=13.2572 FROM 0 TO 0.01
va: PP(v(n009,n011))=21.0152 FROM 0 TO 0.01
ia: PP(i(r4))=0.000154579 FROM 0 TO 0.01
nfb: 20*log10(va/vg1)=4.00166
powout: PP(v(n001))=18.7835 FROM 0 TO 0.01
power: powout**2/64=5.51284


Date: Thu Jan 21 17:11:20 2021
Total elapsed time: 1.267 seconds.

tnom = 27
temp = 27
method = modified trap
totiter = 35319
traniter = 35301
tranpoints = 7792
accept = 5882
rejected = 1910
matrix size = 69
fillins = 40
solver = Normal
Thread vector: 52.5/19.3[3] 4.0/3.0[3] 6.7/3.7[3] 1.3/1.6[1]  2592/500
Matrix Compiler1: 6.20 KB object code size  2.8/2.0/[1.4]
Matrix Compiler2: 5.85 KB object code size  1.6/2.2/[1.2]


